Version 4
SHEET 1 880 680
WIRE -48 0 -64 0
WIRE 112 0 32 0
WIRE 208 0 112 0
WIRE 512 0 288 0
WIRE 368 32 176 32
WIRE 112 96 112 0
WIRE 224 96 112 96
WIRE 176 128 176 32
WIRE 112 144 112 96
WIRE 144 144 112 144
WIRE 288 160 288 96
WIRE 288 160 208 160
WIRE 432 160 288 160
WIRE 512 160 512 0
WIRE 512 160 496 160
WIRE 144 176 64 176
WIRE 64 192 64 176
WIRE 176 224 176 192
WIRE 368 224 176 224
WIRE -64 256 -64 0
FLAG 368 112 0
FLAG 368 304 0
FLAG -64 256 0
FLAG 64 272 0
FLAG 592 160 0
SYMBOL OpAmps\\AD549 176 96 R0
SYMATTR InstName U1
SYMBOL voltage 368 208 R0
WINDOW 123 0 0 Left 0
WINDOW 39 0 0 Left 0
SYMATTR InstName V1
SYMATTR Value -5
SYMBOL voltage 368 16 R0
WINDOW 123 0 0 Left 0
WINDOW 39 0 0 Left 0
SYMATTR InstName V2
SYMATTR Value 5
SYMBOL voltage 64 176 R0
WINDOW 123 0 0 Left 0
WINDOW 39 0 0 Left 0
SYMATTR InstName V3
SYMATTR Value SINE(0 100m 1k)
SYMBOL res 48 -16 R90
WINDOW 0 0 56 VBottom 2
WINDOW 3 32 56 VTop 2
SYMATTR InstName R1
SYMATTR Value 1k
SYMBOL res 304 -16 R90
WINDOW 0 0 56 VBottom 2
WINDOW 3 32 56 VTop 2
SYMATTR InstName R2
SYMATTR Value 9k
SYMBOL diode 432 176 R270
WINDOW 0 32 32 VTop 2
WINDOW 3 0 32 VBottom 2
SYMATTR InstName D1
SYMATTR Value 1N4148
SYMBOL diode 224 112 R270
WINDOW 0 32 32 VTop 2
WINDOW 3 0 32 VBottom 2
SYMATTR InstName D2
SYMATTR Value 1N4148
SYMBOL res 608 144 R90
WINDOW 0 0 56 VBottom 2
WINDOW 3 32 56 VTop 2
SYMATTR InstName R3
SYMATTR Value 1k
TEXT -40 320 Left 2 !.tran 0 10m 0 10u
